Circuit: * C:\Users\dvorakj\Documents\GitHub\Simple-VCA\Draft1.asc

Warning: Multiple definitions of model "2scr375p" Type: BJT
Warning: Multiple definitions of model "bc857b" Type: BJT
Warning: Multiple definitions of model "bc847c" Type: BJT
Warning: Multiple definitions of model "bc847b" Type: BJT
Direct Newton iteration for .op point succeeded.

Date: Thu Sep 21 15:10:22 2023
Total elapsed time: 0.160 seconds.

tnom = 27
temp = 27
method = modified trap
totiter = 23099
traniter = 23052
tranpoints = 8537
accept = 6677
rejected = 1860
matrix size = 20
fillins = 0
solver = Normal
Avg thread counts: 1.0/1.1/1.1/1.0
Matrix Compiler1:      68 opcodes  0.2/[0.2]/0.3
Matrix Compiler2: off  [0.2]/0.3/0.2

