Circuit: * C:\Users\dvorakj\Documents\GitHub\Simple-VCA\Draft3.asc

ERROR: Node N003 is floating and connected to current source I1

Direct Newton iteration for .op point succeeded.

Date: Fri Oct 13 11:06:37 2023
Total elapsed time: 0.028 seconds.

tnom = 27
temp = 27
method = trap
totiter = 3
traniter = 0
tranpoints = 0
accept = 0
rejected = 0
matrix size = 4
fillins = 0
solver = Normal
Avg thread counts: 8.0/0.0/8.0/8.0
Matrix Compiler1:       7 opcodes
Matrix Compiler2: 242 bytes object code size
