Circuit: * C:\Users\dvorakj\Documents\GitHub\Simple-VCA\vca.asc

Warning: Multiple definitions of model "2scr375p" Type: BJT
Warning: Multiple definitions of model "bc857b" Type: BJT
Warning: Multiple definitions of model "bc847c" Type: BJT
Warning: Multiple definitions of model "bc847b" Type: BJT
WARNING: Node NC_02 is floating.

WARNING: Less than two connections to node 5v.  This node is used by v3.
WARNING: Less than two connections to node nc_01.  This node is used by v6.
WARNING: Less than two connections to node nc_02.  This node is used by v6.
Direct Newton iteration failed to find .op point.  (Use ".option noopiter" to skip.)
Starting Gmin stepping
Gmin = 10
Gmin = 1.07374
Gmin = 0.115292
Gmin = 0.0123794
Gmin = 0.00132923
Gmin = 0.000142725
Gmin = 1.5325e-05
Gmin = 1.6455e-06
vernier = 0.5
vernier = 0.666667
Gmin = 5.75037e-07
vernier = 0.888888
vernier = 1
Gmin = 8.6905e-08
Gmin = 9.33136e-09
Gmin = 1.00195e-09
Gmin = 1.07583e-10
Gmin = 1.15517e-11
Gmin = 1.24035e-12
Gmin = 1.33182e-13
Gmin = 0
Gmin stepping succeeded in finding the operating point.


Date: Mon Aug 21 01:52:53 2023
Total elapsed time: 0.504 seconds.

tnom = 27
temp = 27
method = modified trap
totiter = 25962
traniter = 25451
tranpoints = 12472
accept = 9553
rejected = 2919
matrix size = 53
fillins = 58
solver = Normal
Avg thread counts: 1.0/1.1/1.1/1.0
Matrix Compiler1: 5.38 KB object code size  1.1/1.0/[0.5]
Matrix Compiler2: 5.66 KB object code size  0.9/1.1/[0.5]

